<!-- indian_traffic_additional.add.xml -->
<?xml version="1.0" encoding="UTF-8"?>
<additional>
    <!-- Traffic Light Programs -->
    <tlLogic id="J2" type="static" programID="0" offset="0">
        <phase duration="30" state="GGgrrrGGgrrr"/>
        <phase duration="3"  state="yyyrrryyyrrr"/>
        <phase duration="30" state="rrrGGgrrrGGg"/>
        <phase duration="3"  state="rrryyyrrryyy"/>
    </tlLogic>
    
    <!-- Vehicle Detectors -->
    <laneAreaDetector id="d1" lane="E1_0" pos="0" length="100" freq="10" file="detector_output.xml"/>
    
    <!-- Variable Speed Signs -->
    <variableSpeedSign id="vss1" lanes="E1_0 E1_1 E1_2">
        <step time="0" speed="13.89"/>
    </variableSpeedSign>
</additional>