<!-- indian_traffic_routes.rou.xml -->
<?xml version="1.0" encoding="UTF-8"?>
<routes>
    <!-- Vehicle Types -->
    <vType id="car" length="4.50" width="1.80" accel="2.6" decel="4.5" sigma="0.5" maxSpeed="16.67"
           lcStrategic="0.5" lcSpeedGain="0.8" lcKeepRight="0.3" 
           jmDriveAfterRedTime="1" jmDriveRedSpeed="2.5"
           minGap="0.5" tau="0.5"/>
           
    <vType id="motorcycle" length="2.20" width="0.90" accel="3.5" decel="5.0" sigma="0.8" maxSpeed="19.44"
           lcStrategic="0.8" lcSpeedGain="1.0" lcKeepRight="0.1"
           jmDriveAfterRedTime="2" jmDriveRedSpeed="3.5"
           minGap="0.3" tau="0.3"/>
           
    <vType id="auto_rickshaw" length="3.20" width="1.40" accel="2.2" decel="4.0" sigma="0.6" maxSpeed="13.89"
           lcStrategic="0.7" lcSpeedGain="0.9" lcKeepRight="0.2"
           jmDriveAfterRedTime="1.5" jmDriveRedSpeed="3.0"
           minGap="0.4" tau="0.4"/>
           
    <vType id="bus" length="12.0" width="2.50" accel="1.8" decel="4.0" sigma="0.4" maxSpeed="13.89"
           lcStrategic="0.3" lcSpeedGain="0.5" lcKeepRight="0.6"
           minGap="1.0" tau="0.8"/>

    <!-- Flow Definitions -->
    <flow id="car_flow" type="car" begin="0" end="3600" probability="0.3">
        <route edges="E1 E2 E3"/>
    </flow>
    
    <flow id="motorcycle_flow" type="motorcycle" begin="0" end="3600" probability="0.4">
        <route edges="E1 E2 E3"/>
    </flow>
    
    <flow id="auto_flow" type="auto_rickshaw" begin="0" end="3600" probability="0.2">
        <route edges="E1 E2 E3"/>
    </flow>
</routes>