<!-- indian_traffic.net.xml -->
<?xml version="1.0" encoding="UTF-8"?>
<net version="1.9" xmlns:xsi="http://www.w3.org/2001/XMLSchema-instance" xsi:noNamespaceSchemaLocation="http://sumo.dlr.de/xsd/net_file.xsd">
    <location netOffset="0.00,0.00" convBoundary="0.00,0.00,500.00,500.00" origBoundary="-10000000000.00,-10000000000.00,10000000000.00,10000000000.00" projParameter="!"/>
    
    <!-- Junction Definitions -->
    <edge function="internal">
        <lane id=":junction2_0_0" index="0" speed="10.00" length="10.00" shape="245.20,254.80 254.80,254.80"/>
        <lane id=":junction2_0_1" index="1" speed="10.00" length="10.00" shape="245.20,251.60 254.80,251.60"/>
    </edge>
    
    <!-- Junction Types -->
    <junction id="junction1" type="priority" x="0.00" y="250.00" incLanes="" intLanes="" shape="-0.00,253.60 -0.00,246.40">
        <request index="0" response="0" foes="0"/>
    </junction>
    
    <junction id="junction2" type="traffic_light" x="250.00" y="250.00" incLanes="N1_0 N1_1 E1_0 E1_1 E1_2" intLanes=":junction2_0_0 :junction2_0_1" shape="245.20,256.40 254.80,256.40 254.80,243.60 245.20,243.60">
        <request index="0" response="00" foes="00"/>
        <request index="1" response="00" foes="00"/>
    </junction>
    
    <!-- Edge Definitions -->
    <edge id="E1" from="junction1" to="junction2" priority="3">
        <lane id="E1_0" index="0" speed="16.67" length="245.20" width="3.50" shape="0.00,246.40 245.20,246.40"/>
        <lane id="E1_1" index="1" speed="16.67" length="245.20" width="3.50" shape="0.00,250.00 245.20,250.00"/>
        <lane id="E1_2" index="2" speed="16.67" length="245.20" width="3.50" shape="0.00,253.60 245.20,253.60"/>
    </edge>
    
    <edge id="E2" from="junction2" to="junction3" priority="3">
        <lane id="E2_0" index="0" speed="16.67" length="245.20" width="3.50" shape="254.80,246.40 500.00,246.40"/>
        <lane id="E2_1" index="1" speed="16.67" length="245.20" width="3.50" shape="254.80,250.00 500.00,250.00"/>
        <lane id="E2_2" index="2" speed="16.67" length="245.20" width="3.50" shape="254.80,253.60 500.00,253.60"/>
    </edge>
    
    <edge id="N1" from="junction4" to="junction2" priority="2">
        <lane id="N1_0" index="0" speed="13.89" length="245.20" width="3.20" shape="246.40,0.00 246.40,245.20"/>
        <lane id="N1_1" index="1" speed="13.89" length="245.20" width="3.20" shape="250.00,0.00 250.00,245.20"/>
    </edge>
    
    <!-- Connection Definitions -->
    <connection from="E1" to="E2" fromLane="0" toLane="0" via=":junction2_0_0" tl="junction2" linkIndex="0"/>
    <connection from="E1" to="E2" fromLane="1" toLane="1" via=":junction2_0_1" tl="junction2" linkIndex="1"/>
    <connection from="E1" to="E2" fromLane="2" toLane="2" via=":junction2_0_1" tl="junction2" linkIndex="2"/>
    
    <!-- Traffic Light States -->
    <tlLogic id="junction2" type="static" programID="0" offset="0">
        <phase duration="31" state="GGG"/>
        <phase duration="4"  state="yyy"/>
        <phase duration="31" state="rrr"/>
        <phase duration="4"  state="yyy"/>
    </tlLogic>
    
    <!-- Connection Types -->
    <type id="highway" priority="3" numLanes="3" speed="27.78"/>
    <type id="urban" priority="2" numLanes="2" speed="13.89"/>
</net>